8

 C                 -1.08678567   -0.35674451    0.00001261
 H                 -1.63124578   -0.54729651    0.90698554
 H                 -1.63130106   -0.54719206   -0.90694908
 C                 -0.17968246    0.71513072    0.00004667
 H                  0.03530700    1.28066906    0.90973374
 H                  0.03525151    1.28077385   -0.90958836
 H                  0.40623997   -0.99348006   -0.00006961
 F                  1.15383968   -0.29153239   -0.00005199
