60
guess2.pdb
C         -4.35500        1.76200        0.13500
C         -3.13500        1.08900        0.21200
C         -3.73300       -0.23100       -1.70500
C         -4.95100        0.43500       -1.78200
C         -5.26700        1.44100       -0.86600
H         -4.59400        2.53400        0.87200
H         -2.44900        1.34500        1.02500
H         -3.47700       -1.02700       -2.40800
H         -5.66300        0.17100       -2.56800
H         -6.22400        1.96400       -0.92900
C         -1.41400       -1.96100       -1.02800
C         -0.35900       -2.90200       -0.95300
O          0.23800       -3.13600       -2.16000
O         -0.02300       -3.53300        0.04600
C          1.17700       -4.18900       -2.17700
H          0.71200       -5.14800       -1.90500
H          1.56300       -4.24200       -3.20400
H          2.00800       -4.00800       -1.47600
C         -2.79800        0.08600       -0.70900
C         -1.51100       -0.67700       -0.65900
P          0.46400        0.52900        0.26000
C          1.98300       -0.33500       -0.23800
H          1.98900       -1.28700        0.31700
H          1.83800       -0.60300       -1.29500
C          0.57200        2.24100       -0.37700
H         -0.45700        2.55100       -0.61900
H          1.09300        2.14600       -1.34400
C          0.46800        0.53600        2.09100
H          1.51500        0.66400        2.41200
H         -0.07900        1.41900        2.45600
C         -0.13100       -0.75400        2.66400
H         -1.21700       -0.75400        2.47100
H          0.25000       -1.63800        2.12200
C          0.13300       -0.90600        4.16000
H          1.22300       -0.93800        4.33500
H         -0.23400       -0.01300        4.69600
C         -0.51500       -2.16000        4.74100
H         -0.29100       -2.26900        5.81400
H         -1.61000       -2.13000        4.63000
H         -0.15600       -3.06300        4.22600
C          1.23900        3.28100        0.52700
H          2.21700        2.91600        0.88100
H          0.62100        3.41600        1.43000
C          1.42800        4.63800       -0.15600
H          1.75200        5.36400        0.60800
H          0.45100        4.99800       -0.52100
C          2.43900        4.62800       -1.29900
H          2.57300        5.63700       -1.71700
H          3.42500        4.27700       -0.95600
H          2.12300        3.97600       -2.12900
C          3.29300        0.42400       -0.02400
H          3.30300        1.34700       -0.63000
H          3.38100        0.74300        1.02900
C          4.52000       -0.41900       -0.38400
H          5.42300        0.16200       -0.13400
H          4.54500       -1.31200        0.26400
C          4.58000       -0.84400       -1.84800
H          5.51600       -1.37700       -2.06600
H          3.75200       -1.51900       -2.11700
H          4.52900        0.03000       -2.52000
