34
Coordinates from ORCA-job 15_tpss_tzvp_full_scan_acn
  C   -1.54280327008914      0.85535704791081     -1.90474866885810
  C   -2.08187720555291      0.52423914927118     -0.64873696548744
  C   -1.95121022254723     -0.77256333259488     -0.17158954826959
  C   -1.28735225377645     -1.75112774817794     -0.92421992617929
  C   -0.77615548593567     -1.41572804546517     -2.18145797506514
  C   -0.89348739607989     -0.12228252672301     -2.67599063878794
  H   -2.58863337556663      1.28217791859031     -0.06117207879772
  H   -2.36161864765597     -1.02230864240870      0.80311441083626
  H   -0.26360798840795     -2.16922620955485     -2.77139622464974
  H   -0.47916971603897      0.13846526300054     -3.64341910228414
  C   -1.09525700494925     -3.14368708956538     -0.35990711148430
  H   -2.05948506316937     -3.58266275565636     -0.08798879520809
  H   -0.61989946794235     -3.79820935106943     -1.09255431647776
  N   -0.26804453981681     -3.17892050331960      0.87265827117236
  H   -0.60412218552498     -2.57765370362938      1.62397845421907
  S   1.38209652732093     -3.12938975856655      0.76505467446698
  O   1.83798167603944     -3.00991024983204      2.14331988431053
  O   1.78554782843462     -4.27368565382888     -0.03662157374066
  C   1.83516240481420     -1.66758193010729     -0.13038341175755
  C   1.46420634114239     -0.41645615717085      0.37576668671391
  C   2.49241362302441     -1.78046878957324     -1.35409068130907
  C   1.74120787822905      0.72190713290725     -0.36781886705707
  H   0.94937219562914     -0.33758012323856      1.32768385360204
  C   2.77253737785686     -0.62465711545284     -2.08182026837547
  H   2.76362553793661     -2.75849914904323     -1.73501715130320
  C   2.39135084959614      0.63632321818923     -1.61090292963142
  H   1.43654024331613      1.69309465864955      0.01218534016827
  H   3.27831389887158     -0.70848307167645     -3.03961414535621
  C   -1.64236198555934      2.19346172942272     -2.39197439077468
  N   -1.71530704693846      3.28535654753688     -2.78819325902603
  C   2.65225262655184      1.87993091383799     -2.41977697591778
  H   1.71194143408709      2.39630675912316     -2.64559914500929
  H   3.28045270958806      2.58347478046283     -1.86128817408393
  H   3.15001253311308      1.64053648775215     -3.36258400059787
