34

  C   -4.60135677289142     -0.15841699738550     -1.88685975795545
  C   -4.36038078876349     -0.76716038453666     -0.64133303309301
  C   -3.06205066934579     -0.84015069757065     -0.15474253448444
  C   -1.99224293745690     -0.31561618642565     -0.89291394170291
  C   -2.24082797884760      0.28275575482687     -2.13272027298091
  C   -3.53543866001123      0.36939079525591     -2.63404236262106
  H   -5.18833337260190     -1.17298337715319     -0.07019357496800
  H   -2.87249897605950     -1.31267554725931      0.80384190846558
  H   -1.41373251729496      0.68187457987571     -2.71247561261461
  H   -3.72574452267677      0.83160291738994     -3.59645481568166
  C   -0.58060648986662     -0.37539930375561     -0.35616852258535
  H   0.12712446916404     -0.05029317790796     -1.12773177132931
  H   -0.47909557723143      0.28929216395076      0.50759350455500
  N   -0.28081891189079     -1.74690016002787      0.11641592623248
  H   -0.33515313139284     -2.44139695137829     -0.63053370975284
  S   1.10787933193865     -1.97824964085347      0.99627305103744
  O   1.00625490515758     -1.11928960759111      2.16516778283294
  O   1.22028198700390     -3.42015892660413      1.15442668815499
  C   2.46798759773011     -1.40170884494136      0.01628324592298
  C   2.99441522016516     -0.12816074118333      0.24006478409410
  C   2.96701459534166     -2.21778175098841     -1.00448281911173
  C   4.04085698509701      0.32238480863667     -0.56168756681327
  H   2.59625072224237      0.49353329324402      1.03500649225736
  C   4.01043294992652     -1.74950524975715     -1.79494983477709
  H   2.54866535099409     -3.20518606321078     -1.17089894263201
  C   4.56681709253075     -0.47777102940274     -1.58456649724111
  H   4.45557324484226      1.31156537277819     -0.38795731430728
  H   4.40258677609526     -2.38116942868037     -2.58780874987730
  C   -5.93388122860840     -0.08069472410067     -2.39520438883906
  N   -7.01967913503765     -0.01665708785255     -2.80908889830958
  C   5.72173786826305      0.00315116785287     -2.42410391106499
  H   5.77192240189614      1.09554092946214     -2.43735915058799
  H   6.66841714113364     -0.37086941718536     -2.01426101348431
  H   5.64224586045525     -0.36334678752093     -3.45163913673760
